ELEMENTS
H C O N 
END

SPECIES
H	H2	O	O2
OH	H2O	CO	CO2
CH3	CH4	HO2	H2O2	
CH2O	C2H6	C2H4	C2H5	
C2H	C2H2	CH3OH	CH2CO
HCCO	CH3CHO	C3H4-A	C3H4-P
C3H6	C4H6	C4H7	C4H8-1	
PC4H9	CH3COCH2	C2H5CHO	C5H9
C5H10-1	C5H11-1	CH3O2	CH3O2H
C2H3CO	C2H3CHO	C3H5-A	C3H3
NC3H7CHO	C2H5COCH2	
CH3CHCO		NC3H7COCH3
NC3H7COCH2	NC7H16	C7H15-1		
C7H15O2		C7H14OOHO2	C7H14O	
NC7KET	N2
END


TRANS ALL
H                  0   145.000     2.050     0.000     0.000     0.000          
H2                 1    38.000     2.920     0.000     0.790   280.000          
O                  0    80.000     2.750     0.000     0.000     0.000          
O2                 1   107.400     3.458     0.000     1.600     3.800          
OH                 1    80.000     2.750     0.000     0.000     0.000          
H2O                2   572.400     2.605     1.844     0.000     4.000          
CO                 1    98.100     3.650     0.000     1.950     1.800          
CO2                1   244.000     3.763     0.000     2.650     2.100          
CH3                1   144.000     3.800     0.000     0.000     0.000          
CH4                2   141.400     3.746     0.000     2.600    13.000          
HO2                2   107.400     3.458     0.000     0.000     1.000          
H2O2               2   107.400     3.458     0.000     0.000     3.800          
CH2O               2   498.000     3.590     0.000     0.000     2.000          
C2H6               2   247.500     4.350     0.000     0.000     1.500          
C2H4               2   238.400     3.496     0.000     0.000     1.500          
C2H5               2   247.500     4.350     0.000     0.000     1.500          
C2H                1   265.300     3.721     0.000     0.000     2.500 !
C2H2               1   265.300     3.721     0.000     0.000     2.500          
CH3OH              2   481.800     3.626     0.000     0.000     1.000 ! SVE
CH2CO              2   436.000     3.970     0.000     0.000     2.000          
HCCO               2   150.000     2.500     0.000     0.000     1.000          
CH3CHO             2   436.000     3.970     0.000     0.000     2.000          
C3H4-A             1   324.800     4.290     0.000     0.000     1.000          
C3H4-P             1   324.800     4.290     0.000     0.000     1.000 ! NMM
C3H6               2   307.800     4.140     0.000     0.000     1.000          
C4H6               2   357.000     4.720     0.000     0.000     1.000          
C4H7               2   355.000     4.650     0.000     0.000     1.000          
C4H8-1             2   355.000     4.650     0.000     0.000     1.000          
PC4H9              2   352.000     5.240     0.000     0.000     1.000          
CH3COCH2           2   435.500     4.860     0.000     0.000     1.000          
C2H5CHO            2   435.2       4.662     2.7       0.0       1.0            
C5H9               2   396.8       5.458     0.0       0.0       1.0            
C5H10-1            2   386.2       5.489     0.4       0.0       1.0            
C5H11-1            2   440.735     5.041     0.000     0.000     0.000    !FLAMEMASTER
CH3O2              2   481.800     3.626     0.000     0.000     1.000          
CH3O2H             2   481.800     3.626     0.000     0.000     1.000          
C2H3CO             2   443.200     4.120     0.000     0.000     1.000          
C2H3CHO            2   428.8       4.958     2.9       0.0       1.0            
C3H5-A             2   316.000     4.220     0.000     0.000     1.000          
C3H3               1   324.800     4.290     0.000     0.000     1.000          
NC3H7CHO           2   464.2       5.009     2.6       0.0       1.0            
C2H5COCH2          2   454.0   	   5.413     3.3       0.0       1.0 !   WJP
CH3CHCO            2   443.200     4.120     0.000     0.000     1.000 ! NMM
NC3H7COCH3         2   477.0       5.735     2.5       0.0       1.0 !   WJP
NC3H7COCH2         2   489.084     5.348     0.000     0.000     0.000          
NC7H16             2   459.6       6.253     0.0       0.0       1.0            
C7H15-1            2   459.6       6.253     0.0       0.0       1.0            
C7H15O2            2   561.0       6.317     1.7       0.0       1.0 !   WJP
C7H14OOHO2         2   600.6       7.229     1.8       0.0       1.0 !   NC10H22O WJP
C7H14O             2   511.5       6.297     0.0       0.0       1.0 !   C8H16-1-5 WJP
NC7KET             2   581.3   	   6.506     2.0       0.0       1.0 !   1C8H17OH WJP
N2                 1   97.530      3.621     0.000     1.760     4.000
END

REACTIONS
END
